psse_raw/case4_zero_impedance_3wt.raw
0,   100.00, 33, 0, 1, 60.00     / PSS(R)E 33 RAW created by rawd33  MON, JUN 30 2025  12:12


   101,'BUS 101     ', 230.0000,3,   1,   1,   1,1.00000,   0.0000,1.10000,0.90000,1.10000,0.90000
   102,'BUS 102     ', 230.0000,1,   1,   1,   1,0.99958,  -0.0033,1.10000,0.90000,1.10000,0.90000
   103,'BUS 103     ', 230.0000,2,   1,   1,   1,1.00000,   0.0257,1.10000,0.90000,1.10000,0.90000
   104,' BUS 104    ', 230.0000,1,   1,   1,   1,0.99900,  -0.0697,1.10000,0.90000,1.10000,0.90000
0 / END OF BUS DATA, BEGIN LOAD DATA
   102,'1 ',1,   1,   1,    10.000,     5.000,     0.000,     0.000,     0.000,     0.000,   1,1,0
   103,'1 ',1,   1,   1,     8.000,     2.000,     0.000,     0.000,     0.000,     0.000,   1,1,0
   104,'1 ',1,   1,   1,     5.000,     3.000,     0.000,     0.000,     0.000,     0.000,   1,1,0
0 / END OF LOAD DATA, BEGIN FIXED SHUNT DATA
0 / END OF FIXED SHUNT DATA, BEGIN GENERATOR DATA
   101,'1 ',     8.009,     6.688,  9999.000, -9999.000,1.00000,     0,   100.000, 0.00000E+0, 1.00000E+0, 0.00000E+0, 0.00000E+0,1.00000,1,  100.0,  9999.000, -9999.000,   1,1.0000
   103,'1 ',    15.000,    -5.306,  9999.000, -9999.000,1.00000,     0,   100.000, 0.00000E+0, 1.00000E+0, 0.00000E+0, 0.00000E+0,1.00000,1,  100.0,  9999.000, -9999.000,   1,1.0000
0 / END OF GENERATOR DATA, BEGIN BRANCH DATA
   101,   102,'1 ', 4.53000E-3, 2.01000E-3,   0.08450,    0.00,    0.00,    0.00,  0.00000,  0.00000,  0.00000,  0.00000,1,1,   0.00,   1,1.0000
   101,   103,'1 ', 5.20000E-3, 1.00000E-4,   0.00185,    0.00,    0.00,    0.00,  0.00000,  0.00000,  0.00000,  0.00000,1,1,   0.00,   1,1.0000
0 / END OF BRANCH DATA, BEGIN TRANSFORMER DATA
102,103,104,'1 ',2,2,1, 0.00000E+0, 0.00000E+0,2,'W-LIBER3    ',1, 534,1.0000,   0,1.0000,   0,1.0000,   0,1.0000,'YNa0d1      '
 5.00000E-3, 5.00000E-2,    15.00, 3.00000E-3, 3.10000E-2,   15.00, 2.00000E-3, 1.90000E-2,   15.00,1.01105, -14.8906
230.000, 230.000,   0.000,    28.00,    28.00,    28.00,-1, 539736,37.95000,31.05000, 1.04500, 1.02000,  33, 0, 0.00000, 0.00000,  0.000
230.000, 230.000,   0.000,    28.00,    28.00,    28.00, 0,      0, 1.10000, 0.90000, 1.10000, 0.90000,  33, 0, 0.00000, 0.00000,  0.000
230.000, 230.000,   0.000,     5.30,     5.30,     5.30, 0,      0, 1.10000, 0.90000, 1.10000, 0.90000,  33, 0, 0.00000, 0.00000,  0.000
0 / END OF TRANSFORMER DATA, BEGIN AREA DATA
0 / END OF AREA DATA, BEGIN TWO-TERMINAL DC DATA
0 / END OF TWO-TERMINAL DC DATA, BEGIN VSC DC LINE DATA
0 / END OF VSC DC LINE DATA, BEGIN IMPEDANCE CORRECTION DATA
0 / END OF IMPEDANCE CORRECTION DATA, BEGIN MULTI-TERMINAL DC DATA
0 / END OF MULTI-TERMINAL DC DATA, BEGIN MULTI-SECTION LINE DATA
0 / END OF MULTI-SECTION LINE DATA, BEGIN ZONE DATA
0 / END OF ZONE DATA, BEGIN INTER-AREA TRANSFER DATA
0 / END OF INTER-AREA TRANSFER DATA, BEGIN OWNER DATA
0 / END OF OWNER DATA, BEGIN FACTS DEVICE DATA
0 / END OF FACTS DEVICE DATA, BEGIN SWITCHED SHUNT DATA
0 / END OF SWITCHED SHUNT DATA, BEGIN GNE DATA
0 / END OF GNE DATA, BEGIN INDUCTION MACHINE DATA
0 / END OF INDUCTION MACHINE DATA
Q
